! wB97M-V def2-TZVP def2/J RIJCOSX strongSCF noautostart miniprint nopop
%maxcore  1000
%pal nprocs   4 end
%cpcm
smd true
SMDsolvent "water"
end
* xyz   -1   1
C     10.79569159   43.92885832   32.11608309
O     12.00316926   43.84370053   32.16521834
O      9.90701161   42.98253797   32.41417793
P     10.28537734   41.46390582   33.17470438
O     10.99728300   41.73469041   34.44762861
C     10.08140199   45.20278274   31.64329370
N     10.93825003   46.38066231   31.67658846
C      9.52545177   44.96637619   30.22852463
C      8.67540343   46.10430874   29.75842308
C      7.37044857   46.24859474   30.22396379
C      9.18327414   47.08932364   28.91771210
C      6.62059818   47.37406182   29.92314843
C      8.43966411   48.21427391   28.59844419
C      7.17058736   48.37269819   29.13454440
O      6.46411575   49.55368628   28.94650502
C      7.03096809   50.65339080   29.68793187
C      7.12787578   50.30349889   31.14648107
C      6.02566977   50.22116284   32.00026755
C      8.33243545   49.80273004   31.63200240
N      4.69515389   50.70353698   31.58965213
C      6.11172631   49.66495958   33.26647863
C      8.44257038   49.25513219   32.89991254
O      4.62984409   51.76195898   30.96803733
O      3.72468096   50.02979185   31.92549517
C      7.32911293   49.18945680   33.72239663
O      8.97065470   40.74382868   33.03167291
O     11.37646401   40.84658026   32.09962089
C     10.90922788   40.09780614   30.98491348
C     11.01130599   38.61104393   31.20962085
O     12.39784560   38.19822346   31.22227793
C     10.45828394   38.11193679   32.54299163
C     12.57359326   37.16730493   32.16037128
O      9.06863946   38.05510641   32.62447751
C     11.18252131   36.78934765   32.70198567
N     13.48783262   37.60531362   33.21489832
O     10.58017510   35.79509987   31.88665690
C     14.26026981   36.75710820   33.96726463
C     13.72003681   38.88203665   33.69358258
N     14.34713658   35.42432898   33.89796114
C     14.94143500   37.58454399   34.86192377
N     14.59264384   38.90350500   34.67718913
C     15.18762444   34.93980092   34.81341687
C     15.78952659   36.94434230   35.77059882
N     15.89691394   35.60651987   35.73265668
N     16.53515890   37.63808109   36.67245828
H      9.23496527   45.37236510   32.30973629
H     11.79231317   46.13700500   31.18281570
H     11.24977742   46.49947025   32.63463241
H     10.36720394   44.81500560   29.55014740
H      8.95423336   44.04026468   30.24434860
H      6.94936055   45.48478229   30.86624857
H     10.18955566   46.98839287   28.53185453
H      5.62744653   47.50998289   30.32819629
H      8.85389180   48.98822864   27.96561628
H      8.02898679   50.88614728   29.31187358
H      6.37932137   51.49534789   29.49753917
H      9.19021060   49.78669078   30.97559519
H      5.22411733   49.60672865   33.87784068
H      9.39065710   48.84885754   33.22176626
H      7.39895845   48.75220364   34.70869484
H      9.86798459   40.33285217   30.76243317
H     11.52108715   40.37943702   30.12627437
H     10.49404708   38.09816535   30.39287150
H     10.86330481   38.76303698   33.32500136
H     13.04654305   36.30232358   31.69286923
H      8.81104750   38.98563051   32.82875660
H     11.23719276   36.46743108   33.74372723
H     11.03992106   34.96703601   32.06493932
H     13.21547484   39.73809111   33.27666374
H     15.31004059   33.86284554   34.82314162
H     16.23959080   38.58079709   36.86028758
H     16.87771086   37.10994119   37.45597378
 *
