! wB97M-V def2-TZVP def2/J RIJCOSX strongSCF noautostart miniprint nopop
%maxcore  1000
%pal nprocs   4 end
* xyz   -1   1
C     10.06610809   43.38783180   33.31254585
O     11.01884222   43.38320794   34.06045117
O      9.45866719   42.32429740   32.78861465
P      9.78045972   40.67423409   33.21666376
O      9.62929546   40.49965690   34.68030392
C      9.37828179   44.67886555   32.86185450
N     10.15887313   45.82601392   33.30348972
C      9.16388474   44.71319250   31.33845295
C      8.36194150   45.90352672   30.91303080
C      6.96984514   45.83625580   30.82934011
C      8.96256286   47.12560871   30.63743741
C      6.21040208   46.93830033   30.48547420
C      8.21671622   48.24696864   30.29163340
C      6.83127751   48.15506017   30.21166559
O      5.99869009   49.19090895   29.87359985
C      6.59305935   50.43985026   29.58539223
O      8.96913423   39.96630295   32.15902842
O     11.38668848   40.57305821   32.84180981
C     11.74630815   40.44491809   31.47024579
C     12.07534438   39.02331827   31.08042972
O     13.40601288   38.66990440   31.51011252
C     11.17835355   37.94713815   31.68881156
C     13.44674802   37.30213023   31.85732838
O      9.95537777   37.77200575   31.02986544
C     12.05867343   36.71541664   31.58527333
N     13.83913549   37.18895459   33.26054238
O     12.02906172   36.17806310   30.27233020
C     14.63491211   36.20303464   33.79126126
C     13.48306211   38.01438988   34.31068639
N     15.24053374   35.18821718   33.16831760
C     14.71067850   36.49419419   35.15518202
N     13.99112501   37.62847884   35.45964049
C     15.96467209   34.45386218   34.01209310
C     15.49825779   35.63619049   35.92893173
N     16.12978690   34.61388752   35.33216576
N     15.61530391   35.78441577   37.27636115
H      8.38383990   44.64300804   33.32669320
H     10.75585579   45.51985884   34.06333909
H      9.55074993   46.55299607   33.65033024
H      8.66772022   43.79478941   31.03533581
H     10.14696480   44.73205344   30.86815296
H      6.47306777   44.89655541   31.03821395
H     10.03786553   47.20809705   30.71593795
H      5.13286131   46.87597368   30.41685953
H      8.72905004   49.17437195   30.08372901
H      7.27275808   50.37895554   28.73132770
H      5.77714122   51.11419344   29.34195845
H      7.14050384   50.83769345   30.44400355
H     12.61965399   41.07632970   31.30148299
H     10.93995009   40.79295384   30.82487404
H     12.02671662   38.94516216   29.98929260
H     11.02226172   38.17491978   32.74523888
H     14.20369790   36.77109904   31.28200366
H      9.39917521   38.52675788   31.36092307
H     11.80706865   35.95000774   32.32378758
H     11.13792691   36.37078610   29.94420551
H     12.87217021   38.88892715   34.15740594
H     16.49491179   33.61502574   33.57624214
H     16.40033745   35.32427088   37.70269532
H     15.35867370   36.68155288   37.65059970
 *
