! wB97M-V def2-TZVP def2/J RIJCOSX strongSCF noautostart miniprint nopop
%maxcore  1000
%pal nprocs   4 end
%cpcm
smd true
SMDsolvent "water"
end
* xyz   -1   1
C     10.12747026   43.26744292   33.16890059
O     11.05761597   43.27664280   33.94447857
O      9.56547265   42.19512815   32.61147732
P      9.88529436   40.55036379   33.05325601
O      9.66969678   40.37577253   34.50908645
C      9.41301052   44.54444634   32.72151956
N     10.14783032   45.70791598   33.19818691
C      9.22497312   44.59826323   31.19558801
C      8.36346271   45.74937483   30.77860459
C      6.98863510   45.59921802   30.64784406
C      8.89093581   47.02227209   30.55807837
C      6.15679978   46.66027347   30.31195974
C      8.07897738   48.09035507   30.22566347
C      6.70019599   47.92402113   30.09237109
O      6.01429283   49.06305756   29.76153340
C      4.60428387   49.05984753   29.49793295
C      3.75070531   48.69829007   30.72919897
C      4.22074542   48.27296475   28.25399418
C      2.52983472   47.86418335   30.36087788
C      2.74767976   48.50091033   27.91025590
C      1.82646299   48.45348677   29.14649102
O      9.12923438   39.83282108   31.96145701
O     11.50776053   40.46007621   32.75390540
C     11.93417662   40.29297576   31.40639753
C     12.28234438   38.86102209   31.07562778
O     13.58715069   38.52028350   31.58830320
C     11.35129908   37.80227664   31.66353964
C     13.60432072   37.16648636   31.98748819
O     10.16880256   37.60449198   30.93984952
C     12.23563279   36.56944211   31.65021984
N     13.90707860   37.10238370   33.41619689
O     12.28622950   35.99293782   30.35457753
C     14.66896033   36.13702546   34.02821504
C     13.48478844   37.96119192   34.41398192
N     15.31276347   35.10347825   33.47867323
C     14.65824098   36.47319731   35.38380714
N     13.91990369   37.61464426   35.60474271
C     15.98210766   34.39887489   34.39042731
C     15.39400165   35.64195051   36.23403672
N     16.06253046   34.60212810   35.71238861
N     15.42371272   35.83345037   37.58053696
H      8.41058678   44.46969478   33.16474506
H      9.50871308   46.41366964   33.53318194
H     10.72926889   45.41060920   33.97334119
H     10.21382013   44.67887427   30.74419291
H      8.78376886   43.66091756   30.86679022
H      6.54642590   44.62430451   30.81453512
H      9.95570166   47.17365067   30.67131402
H      5.09916690   46.47769281   30.22754029
H      8.49618492   49.07344178   30.05388872
H      4.42918305   50.11078196   29.26249843
H      4.36299194   48.18082267   31.46319993
H      3.42283567   49.62147001   31.20943218
H      4.41003850   47.21221849   28.39224924
H      4.85756174   48.58992839   27.42881274
H      1.84668109   47.81288447   31.20964309
H      2.82350631   46.83338516   30.15027576
H      2.63796936   49.46415575   27.40883945
H      2.44172366   47.74844101   27.18329011
H      1.49751499   49.46394372   29.40114911
H      0.91965345   47.89118467   28.92198063
H     12.81481549   40.92043607   31.26292268
H     11.16049727   40.62034085   30.71207155
H     12.29453077   38.75222946   29.98612579
H     11.13361297   38.06187588   32.70132424
H     14.39585479   36.61649126   31.48077552
H      9.59336451   38.36559550   31.21708591
H     11.93877389   35.82631973   32.39469262
H     11.41516827   36.16899672   29.96844197
H     12.88382450   38.82832023   34.19374999
H     16.53910937   33.54737234   34.01695776
H     15.14120289   36.74050291   37.90929862
H     16.17853345   35.38807846   38.07198202
 *
