! B97-3c opt noautostart miniprint nopop
%maxcore  1000
%pal nprocs   8 end
* xyz  -1   1
C     10.29000000   43.78500000   33.82300000
O     11.41600000   43.61800000   34.37600000
O      9.38000000   42.73400000   33.75000000
P      9.89200000   41.21000000   34.29900000
O     10.37000000   41.42800000   35.90100000
C      9.95100000   45.08200000   33.18500000
N     11.01500000   46.05300000   33.46300000
C      9.75200000   44.85900000   31.66800000
C      8.79900000   45.85800000   31.07400000
C      7.41600000   45.62000000   31.10300000
C      9.28500000   47.00800000   30.43700000
C      6.53400000   46.51800000   30.49700000
C      8.40200000   47.91000000   29.83700000
C      7.01500000   47.66700000   29.85800000
O      6.08300000   48.53000000   29.26000000
C      6.39800000   49.68800000   28.48300000
C      5.14500000   50.54700000   28.18200000
C      7.12000000   49.33100000   27.20200000
C      3.77700000   49.88400000   28.43200000
C      6.68700000   48.46400000   26.26900000
C      3.52700000   48.51200000   27.77500000
C      5.48400000   47.56800000   26.39900000
C      4.13900000   48.32200000   26.37200000
O      8.79100000   40.18000000   34.20500000
O     11.25100000   40.76500000   33.38000000
C     10.92900000   40.67600000   32.00800000
C     11.53600000   39.37900000   31.44100000
O     12.76700000   39.08400000   32.06500000
C     10.61800000   38.18300000   31.66300000
C     12.93500000   37.67700000   32.03400000
O      9.62400000   38.06800000   30.66700000
C     11.58000000   37.01000000   31.72200000
N     13.47200000   37.21300000   33.32400000
O     11.63200000   36.33400000   30.48900000
C     14.46500000   36.33800000   33.56700000
C     13.09700000   37.61600000   34.56800000
N     15.19100000   35.62600000   32.66700000
C     14.66200000   36.22700000   34.90400000
N     13.81100000   37.02900000   35.57000000
C     16.15100000   34.77200000   33.14200000
C     15.64000000   35.36000000   35.39900000
N     16.36700000   34.64500000   34.49100000
N     15.88500000   35.20600000   36.79900000
H      9.00600000   45.43700000   33.65200000
H     10.71600000   46.98700000   33.11000000
H     11.88500000   45.78600000   32.94400000
H      9.34500000   43.84400000   31.46000000
H     10.73000000   44.89300000   31.14000000
H      7.02200000   44.73200000   31.58300000
H     10.35000000   47.20300000   30.40200000
H      5.46900000   46.31800000   30.51600000
H      8.81200000   48.78600000   29.35500000
H      7.08400000   50.32900000   29.08000000
H      5.17600000   50.94700000   27.14500000
H      5.18300000   51.44900000   28.83200000
H      8.04500000   49.86300000   26.99700000
H      2.99700000   50.59000000   28.07200000
H      3.62500000   49.78000000   29.52800000
H      7.29600000   48.34400000   25.37800000
H      2.42400000   48.39300000   27.68800000
H      3.84200000   47.69900000   28.46300000
H      5.50100000   46.87700000   25.52800000
H      5.58800000   46.91700000   27.29200000
H      3.42500000   47.70100000   25.78700000
H      4.21500000   49.28400000   25.82100000
H      9.83900000   40.70800000   31.77300000
H     11.39000000   41.54400000   31.48800000
H     11.72300000   39.52300000   30.35200000
H     10.11900000   38.27100000   32.65400000
H     13.66800000   37.43800000   31.23100000
H     10.06200000   38.10200000   29.77700000
H     11.26500000   36.30600000   32.52700000
H     12.14200000   35.49700000   30.65000000
H     12.31400000   38.34100000   34.74900000
H     16.74500000   34.19100000   32.45000000
H     16.62100000   34.54300000   37.13300000
H     15.33900000   35.74700000   37.50500000
 *
