! wB97M-V def2-TZVP def2/J RIJCOSX strongSCF noautostart miniprint nopop
%maxcore  1000
%pal nprocs   4 end
* xyz   -1   1
C     10.00490994   43.12595668   33.60411170
O     11.18801934   43.19876629   33.86217945
O      9.24384096   42.03917691   33.58699015
P      9.79399010   40.40025407   33.88363714
O     10.40518858   40.32876028   35.23537780
C      9.20260012   44.33996160   33.13649610
N      9.82231170   45.55241920   33.63550817
C      9.10786037   44.24097544   31.59113660
C      8.34221188   45.37438499   30.98893747
C      6.94570086   45.39323744   31.01802350
C      8.98361953   46.47188604   30.42790530
C      6.22817230   46.45679632   30.50895545
C      8.27921113   47.55607344   29.91431798
C      6.89095801   47.55163779   29.95353043
O      6.08306640   48.55182566   29.48592110
C      6.68054943   49.71222926   28.90368945
C      5.57288547   50.76592482   28.71519315
C      7.41364248   49.45995620   27.61517828
C      4.12400360   50.27998614   28.62723261
C      6.99450691   48.78039255   26.55374813
C      3.75438425   49.08421578   27.74900762
C      5.70028776   48.05074814   26.37582524
C      4.42830308   48.92409067   26.38485780
O      8.64891791   39.59662685   33.35973435
O     11.05032534   40.34125632   32.79608356
C     10.79261217   40.15439544   31.41946312
C     11.42433050   38.87187754   30.93691032
O     12.83811962   38.88955438   31.22838434
C     10.86902519   37.60334281   31.59367020
C     13.26305146   37.65381275   31.72136946
O      9.75930541   37.05137916   30.92226371
C     12.08465131   36.67828759   31.64058583
N     13.78126954   37.77862161   33.08382917
O     12.12236359   35.94839724   30.41295387
C     14.63315056   36.85563115   33.63484424
C     13.53675434   38.72979512   34.06135160
N     15.11110036   35.73184163   33.08694023
C     14.87986469   37.31649878   34.92818999
N     14.19077881   38.48140921   35.17511941
C     15.88677888   35.06226445   33.94253845
C     15.70591341   36.51377337   35.72017947
N     16.20299604   35.37724693   35.20393866
N     16.04641222   36.86358487   36.98953734
H      8.19072371   44.24921384   33.53464874
H      9.62461071   46.32827975   33.01710697
H     10.82510660   45.40163739   33.65164204
H      8.63679595   43.29040723   31.34268590
H     10.12264465   44.21962040   31.19078448
H      6.41506012   44.55348422   31.44921319
H     10.06559344   46.48288104   30.37939754
H      5.14686664   46.46315683   30.53556150
H      8.82259403   48.37366953   29.46818257
H      7.40640036   50.10801886   29.62032982
H      5.82074047   51.33522996   27.82001727
H      5.61790946   51.47503171   29.54342020
H      8.37855834   49.95306115   27.54787020
H      3.54233713   51.14719319   28.30270408
H      3.77586198   50.05482010   29.63560008
H      7.66626753   48.75963317   25.70135830
H      2.67476041   49.14464846   27.59016684
H      3.91664771   48.16895197   28.31336514
H      5.74647216   47.52230519   25.42391362
H      5.59881900   47.28019534   27.14146932
H      3.70887277   48.44730828   25.71650465
H      4.64485587   49.89746084   25.93878103
H      9.72093899   40.09687459   31.21818756
H     11.21293437   41.00169224   30.87077884
H     11.29035552   38.79525439   29.85153874
H     10.54344686   37.84043899   32.60411323
H     14.09486494   37.27528168   31.12386001
H     10.12137879   36.51291168   30.20559048
H     12.06865468   35.99798802   32.49136633
H     12.80670539   35.27611102   30.50037047
H     12.86449013   39.55387233   33.88772568
H     16.31180528   34.13590810   33.57331912
H     16.38059473   36.11849475   37.57546813
H     15.46138567   37.55371081   37.42930998
 *
