! B97-3c opt noautostart miniprint nopop
%maxcore  1000
%pal nprocs   8 end
* xyz  -1   1
C     10.29200000   43.78100000   33.82600000
O     11.41600000   43.61100000   34.37800000
O      9.38000000   42.73100000   33.75000000
P      9.89100000   41.20700000   34.29800000
O     10.37000000   41.42500000   35.90100000
C      9.95300000   45.08300000   33.18900000
N     11.00800000   46.07100000   33.44200000
C      9.75700000   44.86200000   31.67400000
C      8.80200000   45.86000000   31.07800000
C      7.41900000   45.61800000   31.10400000
C      9.28700000   47.00900000   30.44100000
C      6.53600000   46.51500000   30.49700000
C      8.40400000   47.90900000   29.83800000
C      7.01600000   47.66600000   29.86100000
O      6.08500000   48.53300000   29.26500000
C      6.40200000   49.75800000   28.60700000
C      6.81300000   50.77300000   29.58400000
C      7.15200000   51.60400000   30.38800000
O      8.79000000   40.17800000   34.20400000
O     11.25100000   40.76500000   33.37800000
C     10.92700000   40.67100000   32.00700000
C     11.52300000   39.36700000   31.44500000
O     12.76300000   39.07900000   32.05500000
C     10.60800000   38.18000000   31.68700000
C     12.93000000   37.67200000   32.03200000
O      9.65100000   38.07700000   30.66000000
C     11.57500000   37.00900000   31.72600000
N     13.47200000   37.21300000   33.32300000
O     11.63200000   36.35100000   30.48300000
C     14.46600000   36.33900000   33.56600000
C     13.09700000   37.61700000   34.56600000
N     15.19100000   35.62600000   32.66700000
C     14.66300000   36.22800000   34.90400000
N     13.81000000   37.03000000   35.56900000
C     16.15100000   34.77200000   33.14200000
C     15.63900000   35.36100000   35.39900000
N     16.36700000   34.64500000   34.49100000
N     15.88500000   35.20700000   36.79900000
H      9.00400000   45.44100000   33.64800000
H     11.10300000   46.21200000   34.47500000
H     11.92600000   45.71200000   33.08600000
H     10.73800000   44.90400000   31.15300000
H      9.35600000   43.84600000   31.46100000
H      7.02600000   44.72900000   31.58400000
H     10.35200000   47.20600000   30.40700000
H      5.47200000   46.31300000   30.51700000
H      8.81200000   48.78300000   29.35200000
H      7.20000000   49.60200000   27.85000000
H      5.49700000   50.12500000   28.08100000
H      7.45100000   52.33400000   31.09400000
H     11.39400000   41.53300000   31.48200000
H      9.83700000   40.71100000   31.77200000
H     11.68700000   39.49200000   30.35000000
H     10.10900000   38.27400000   32.68000000
H     13.66100000   37.42800000   31.22800000
H      8.98000000   37.41500000   30.96900000
H     11.28500000   36.29300000   32.53200000
H     10.88500000   35.69600000   30.47100000
H     12.31200000   38.34100000   34.74700000
H     16.74400000   34.19000000   32.45000000
H     16.62100000   34.54400000   37.13300000
H     15.33900000   35.74800000   37.50500000
 *
