! wB97M-V def2-TZVP def2/J RIJCOSX strongSCF noautostart miniprint nopop
%maxcore  1000
%pal nprocs   4 end
%cpcm
smd true
SMDsolvent "water"
end
* xyz   -1   1
C     10.26772833   43.51370944   33.45883146
O     11.34942600   43.47932432   34.00268570
O      9.49428172   42.47327728   33.14112052
P      9.81834951   40.82427058   33.56584724
O      9.97705513   40.70966480   35.03502789
C      9.62562980   44.82304350   32.98489598
N     10.17973110   45.99555630   33.64648078
C      9.80179054   44.93118926   31.45796884
C      8.92500089   45.97535863   30.84074305
C      7.68984564   45.62883598   30.29322797
C      9.27667108   47.31936962   30.83719637
C      6.84506875   46.58094116   29.75347568
C      8.44184412   48.29194405   30.30103655
C      7.22173535   47.91995437   29.75013059
O      6.32190369   48.78618328   29.16757217
C      6.69072286   50.15155572   29.04909869
C      6.63392394   50.89335906   30.29772921
C      6.57447211   51.50288725   31.33243986
O      8.76944570   40.12045323   32.73923586
O     11.30213785   40.61582312   32.86586104
C     11.35768713   40.31796630   31.47593086
C     11.53525174   38.84340413   31.20001209
O     12.90651537   38.44539697   31.40082082
C     10.72860029   37.90415213   32.09449822
C     12.95110145   37.12508310   31.89978930
O      9.39076801   37.74739160   31.71167221
C     11.51035297   36.61026909   31.96882125
N     13.60673001   37.13919131   33.20580000
O     11.19772938   35.94061932   30.75781623
C     14.45756805   36.17139773   33.68200779
C     13.49635647   38.09082351   34.20288172
N     14.89137673   35.06347762   33.07452637
C     14.81322637   36.60075558   34.96260420
N     14.20890161   37.80019757   35.26816079
C     15.74249962   34.38238212   33.84101790
C     15.70673807   35.78498692   35.66344977
N     16.17121298   34.67101487   35.07721924
N     16.09251659   36.06664984   36.93713192
H      8.55759345   44.76608474   33.19333024
H      9.82291910   46.02416121   34.59425716
H     11.17446112   45.81919822   33.75906116
H     10.85372991   45.14399251   31.25915863
H      9.58158435   43.96048951   31.01782377
H      7.38433071   44.58967527   30.29059720
H     10.21116164   47.61805808   31.28987665
H      5.89276227   46.30387500   29.32276323
H      8.74559274   49.32643645   30.34874009
H      7.68591779   50.24365366   28.60244662
H      5.97784156   50.57406230   28.34202447
H      6.53073604   52.02264965   32.25619674
H     12.20256764   40.86711812   31.05780039
H     10.44811427   40.64630732   30.97301807
H     11.26366079   38.65351062   30.15630780
H     10.80016340   38.25145928   33.12757299
H     13.55468213   36.48241358   31.26069543
H      8.94923722   38.57106771   32.05112676
H     11.37280606   35.94687975   32.82650453
H     10.26806604   36.15341492   30.58684177
H     12.89804646   38.97764137   34.07123564
H     16.14633383   33.47358101   33.41000546
H     16.92750857   35.60793950   37.25643657
H     15.94328599   37.00946959   37.25241251
 *
