! wB97M-V def2-TZVP def2/J RIJCOSX strongSCF noautostart miniprint nopop
%maxcore  1000
%pal nprocs   4 end
* xyz   -1   1
C     10.67504863   43.79910901   33.12048019
O     11.77027630   43.70584988   33.62898671
O      9.78940977   42.82128525   32.92802648
P      9.98509166   41.18370279   33.47154890
O     10.22446829   41.17118912   34.93390918
C     10.14951876   45.12004124   32.54457263
N     10.83396309   46.28458759   33.08620800
C     10.29671345   45.07046519   31.01150209
C      9.53163981   46.15509726   30.32103534
C      8.25657077   45.90484539   29.81817858
C     10.04491639   47.44549599   30.20224236
C      7.51015310   46.90628238   29.21477841
C      9.31034575   48.45551179   29.60072557
C      8.04604593   48.17749481   29.10999031
O      7.32382395   49.17621738   28.45939724
C      6.50650692   49.97687978   29.21233588
C      5.80810550   50.96352950   28.51993530
C      6.35105818   49.84725007   30.58879141
C      4.95866324   51.81400293   29.20502140
C      5.49480104   50.70902046   31.26030173
C      4.79492197   51.69396566   30.58013910
O      8.82770280   40.52302217   32.76352522
O     11.39676008   40.78412583   32.70784074
C     11.33182109   40.33586589   31.35865385
C     11.35862868   38.83050902   31.23869432
O     12.70048934   38.32867247   31.40314787
C     10.53368002   38.06879882   32.27497802
C     12.66401406   37.07170417   32.04546863
O      9.16552529   37.99427376   31.98490953
C     11.19253748   36.70224698   32.25009315
N     13.39934573   37.16588155   33.30477412
O     10.74591897   35.94094701   31.13901263
C     14.19040086   36.17950246   33.84192249
C     13.43145312   38.22385814   34.19453643
N     14.48892877   34.97813429   33.33972963
C     14.65851969   36.70744650   35.04714590
N     14.17971610   37.98331711   35.24770834
C     15.32260490   34.30597805   34.13298014
C     15.51852749   35.89105825   35.78815674
N     15.84837539   34.68308977   35.30624642
N     16.00329209   36.26883752   37.00173407
H      9.08688629   45.18871479   32.77632289
H     11.80694867   46.01601780   33.20730161
H     10.49841372   46.44263707   34.02886555
H      9.95172353   44.09835667   30.66513246
H     11.36011934   45.13861817   30.77608621
H      7.84015662   44.90875494   29.90243405
H     11.02304243   47.66040726   30.60685893
H      6.52067743   46.71143176   28.82483922
H      9.70485198   49.45841993   29.51162574
H      5.94459147   51.04485051   27.45049288
H      6.89234031   49.08368555   31.12625201
H      4.41983702   52.57758361   28.65868742
H      5.37789651   50.60206140   32.33093596
H      4.12980814   52.36031650   31.11266176
H     12.19353626   40.75334790   30.83595022
H     10.42401149   40.69616197   30.87504506
H     11.00202109   38.55940973   30.23941276
H     10.70072302   38.51378872   33.25824146
H     13.16898965   36.31157598   31.45144188
H      8.81778221   38.88623003   32.24984548
H     11.05481531   36.14715887   33.18144397
H      9.82952404   36.22087619   30.99540416
H     12.90449553   39.14294578   33.99625344
H     15.61962271   33.32324026   33.78550578
H     15.95721324   37.24992905   37.21614200
H     16.81368750   35.77138634   37.32645208
 *
