! B97-3c opt noautostart miniprint nopop
%maxcore  1000
%pal nprocs   8 end
* xyz  -1   1
C     10.28600000   43.78500000   33.82300000
O     11.41700000   43.61700000   34.36400000
O      9.37800000   42.73300000   33.75000000
P      9.89200000   41.20900000   34.29800000
O     10.37000000   41.42800000   35.90000000
C      9.94200000   45.08800000   33.19500000
N     11.01500000   46.05000000   33.45800000
C      9.76000000   44.86700000   31.67800000
C      8.80300000   45.86000000   31.07700000
C      7.42000000   45.61700000   31.10500000
C      9.28700000   47.00600000   30.43000000
C      6.53500000   46.51200000   30.49600000
C      8.40100000   47.90400000   29.82800000
C      7.01500000   47.66700000   29.86800000
O      6.09700000   48.52900000   29.25000000
C      6.25500000   49.91500000   29.10400000
C      5.66600000   50.54700000   28.00200000
C      6.94600000   50.69000000   30.05500000
C      5.78900000   51.93000000   27.83000000
C      7.06800000   52.07200000   29.88000000
C      6.49300000   52.69100000   28.76700000
O      8.79100000   40.18000000   34.20500000
O     11.25100000   40.76600000   33.37800000
C     10.92700000   40.67100000   32.00700000
C     11.52300000   39.36700000   31.44500000
O     12.76300000   39.07900000   32.05600000
C     10.60800000   38.18000000   31.68700000
C     12.93000000   37.67200000   32.03200000
O      9.65100000   38.07700000   30.66000000
C     11.57500000   37.00900000   31.72600000
N     13.47200000   37.21300000   33.32300000
O     11.63200000   36.35100000   30.48300000
C     14.46600000   36.33900000   33.56600000
C     13.09700000   37.61700000   34.56600000
N     15.19100000   35.62600000   32.66700000
C     14.66300000   36.22800000   34.90400000
N     13.81000000   37.03000000   35.56900000
C     16.15100000   34.77200000   33.14200000
C     15.63900000   35.36100000   35.39900000
N     16.36700000   34.64500000   34.49100000
N     15.88500000   35.20700000   36.79900000
H      8.99200000   45.44600000   33.65500000
H     11.04100000   46.24300000   34.48700000
H     10.76600000   46.95600000   33.00700000
H      9.36900000   43.84800000   31.45700000
H     10.74900000   44.92100000   31.17100000
H      7.02900000   44.72700000   31.58500000
H     10.35100000   47.19800000   30.38500000
H      5.47200000   46.30800000   30.51200000
H      8.79800000   48.76600000   29.31000000
H      5.11700000   49.96400000   27.27400000
H      7.37300000   50.23100000   30.93700000
H      5.33800000   52.41000000   26.97200000
H      7.60200000   52.66500000   30.61200000
H      6.58700000   53.76100000   28.63400000
H     11.39400000   41.53300000   31.48100000
H      9.83700000   40.71100000   31.77200000
H     11.68700000   39.49200000   30.35000000
H     10.10900000   38.27500000   32.68000000
H     13.66100000   37.42800000   31.22800000
H      8.97900000   37.41500000   30.96900000
H     11.28500000   36.29300000   32.53200000
H     10.88500000   35.69600000   30.47100000
H     12.31200000   38.34100000   34.74700000
H     16.74400000   34.19000000   32.45000000
H     15.33900000   35.74800000   37.50500000
H     16.62100000   34.54400000   37.13300000
 *
