! wB97M-V def2-TZVP def2/J RIJCOSX strongSCF noautostart miniprint nopop
%maxcore  1000
%pal nprocs   4 end
%cpcm
smd true
SMDsolvent "water"
end
* xyz   -1   1
C      9.96873280   43.24058306   33.80905530
O     11.06296317   43.27086301   34.32721922
O      9.27767375   42.15520797   33.45230421
P      9.77069503   40.52124978   33.75351212
O     10.01418768   40.33027488   35.20311400
C      9.20891805   44.51312481   33.41771501
N      9.65184387   45.68520363   34.15921183
C      9.38242293   44.73565534   31.90301122
C      8.41879931   45.73399761   31.34154795
C      7.24525427   45.31534319   30.72700269
C      8.63703808   47.10781959   31.45036649
C      6.31182057   46.21756430   30.23054842
C      7.72100295   48.02089727   30.96356017
C      6.54999380   47.58070762   30.35333810
O      5.70167010   48.56918901   29.91051853
C      4.45853099   48.17949084   29.35628733
C      4.54293430   47.58938167   27.97342435
C      3.50581725   46.79273434   27.49854062
C      5.62669212   47.85062668   27.14387693
C      3.54508034   46.27240349   26.21382838
C      5.67184020   47.32386157   25.86182008
C      4.63069343   46.53667477   25.39050614
O      8.75100553   39.77314174   32.92934356
O     11.22928982   40.50007358   32.97282229
C     11.23855704   40.26754796   31.56901977
C     11.53478844   38.82916045   31.21515329
O     12.94799546   38.55853116   31.31653025
C     10.87666200   37.77837603   32.10839363
C     13.14924925   37.23135985   31.75416838
O      9.54110751   37.50257181   31.78950845
C     11.77189826   36.57458125   31.88031603
N     13.87744434   37.26046605   33.02083788
O     11.45241116   35.92657916   30.65929843
C     14.85176795   36.37046433   33.40313161
C     13.73140086   38.15555070   34.06462938
N     15.36051430   35.33980821   32.72212732
C     15.23946794   36.78482776   34.67932656
N     14.53461859   37.90075232   35.07295905
C     16.32452495   34.72482445   33.40645879
C     16.25546848   36.04323289   35.28968322
N     16.79689632   35.00950718   34.62758066
N     16.68805096   36.31520200   36.55079533
H      8.14963612   44.34639411   33.61075241
H     10.66007197   45.59921999   34.25699162
H      9.30196961   45.61313844   35.10743335
H      9.25411066   43.77959089   31.39890836
H     10.41250684   45.05371345   31.73079815
H      7.04971669   44.25468134   30.62685165
H      9.52956628   47.46005513   31.94690728
H      5.43126525   45.84494871   29.73091355
H      7.89046371   49.08511180   31.05687620
H      3.87622798   49.10152416   29.32429636
H      3.93627747   47.49321040   30.02948688
H      2.66440263   46.56782961   28.14387075
H      6.44355140   48.45111807   27.51828965
H      2.73417044   45.64888677   25.86032316
H      6.52779909   47.52388174   25.23060058
H      4.67033108   46.12114252   24.39207821
H     12.00806492   40.90916319   31.13728051
H     10.27832437   40.53297897   31.12709118
H     11.21851879   38.65667652   30.18105794
H     10.97335011   38.08744552   33.15150872
H     13.77278300   36.67641693   31.05482996
H      9.04121937   38.26854415   32.17984942
H     11.75193972   35.86635097   32.71259586
H     10.49884929   36.05863303   30.54838711
H     13.03828629   38.97887779   34.00793604
H     16.79387430   33.88224562   32.91192575
H     17.58714918   35.94005610   36.79705169
H     16.46284925   37.22575079   36.91271469
 *
