! B97-3c opt noautostart miniprint nopop
%maxcore  1000
%pal nprocs   8 end
* xyz  -1   1
C     10.29200000   43.78000000   33.82600000
O     11.41600000   43.61100000   34.37800000
O      9.38000000   42.73100000   33.75000000
P      9.89100000   41.20700000   34.29900000
O     10.36800000   41.42600000   35.90200000
C      9.95300000   45.08300000   33.18800000
N     11.00800000   46.07100000   33.44200000
C      9.75700000   44.86200000   31.67300000
C      8.80200000   45.85900000   31.07800000
C      7.41900000   45.61800000   31.10600000
C      9.28600000   47.01000000   30.44200000
C      6.53400000   46.51400000   30.50000000
C      8.40000000   47.90800000   29.84000000
C      7.02100000   47.66800000   29.85700000
O      6.17900000   48.59800000   29.22700000
C      4.77100000   48.44600000   29.04200000
C      4.47900000   47.37600000   28.02400000
C      3.63100000   46.30000000   28.33800000
C      5.04400000   47.45500000   26.74000000
C      3.36500000   45.31200000   27.38500000
C      4.77600000   46.46400000   25.79000000
C      3.93800000   45.39300000   26.11300000
O      8.79000000   40.17800000   34.20500000
O     11.25100000   40.76400000   33.38100000
C     10.93000000   40.67600000   32.00900000
C     11.53400000   39.37800000   31.44100000
O     12.76600000   39.08200000   32.06300000
C     10.61500000   38.18400000   31.66400000
C     12.93100000   37.67400000   32.03300000
O      9.62000000   38.07200000   30.66900000
C     11.57600000   37.00900000   31.72200000
N     13.47100000   37.21100000   33.32400000
O     11.64300000   36.33000000   30.49100000
C     14.46500000   36.33700000   33.56600000
C     13.09600000   37.61600000   34.56700000
N     15.19100000   35.62600000   32.66700000
C     14.66300000   36.22700000   34.90400000
N     13.81100000   37.02900000   35.57000000
C     16.15100000   34.77200000   33.14200000
C     15.64000000   35.36000000   35.39900000
N     16.36800000   34.64500000   34.49100000
N     15.88500000   35.20600000   36.79900000
H      9.00400000   45.44100000   33.64800000
H     11.92600000   45.71200000   33.08700000
H     11.10200000   46.21200000   34.47500000
H      9.35700000   43.84600000   31.46000000
H     10.73900000   44.90500000   31.15300000
H      7.02800000   44.73000000   31.58800000
H     10.35000000   47.20800000   30.40700000
H      5.47600000   46.29800000   30.54100000
H      8.78900000   48.79000000   29.34800000
H      4.36400000   49.40700000   28.66300000
H      4.27600000   48.24500000   30.01700000
H      3.17600000   46.22500000   29.31800000
H      5.69400000   48.28100000   26.47800000
H      2.71400000   44.48400000   27.63200000
H      5.21700000   46.52800000   24.80400000
H      3.73200000   44.62700000   25.37600000
H     11.39200000   41.54400000   31.48900000
H      9.84000000   40.71100000   31.77200000
H     11.72000000   39.52300000   30.35200000
H     10.11600000   38.27200000   32.65500000
H     13.66300000   37.43300000   31.22900000
H     10.05800000   38.10200000   29.77800000
H     11.27900000   36.30400000   32.53500000
H     10.87800000   35.69800000   30.47200000
H     12.31300000   38.34000000   34.74800000
H     16.74500000   34.19100000   32.45000000
H     16.62100000   34.54400000   37.13300000
H     15.33900000   35.74800000   37.50500000
 *
